#======================================================================

# CRYSTAL DATA

#----------------------------------------------------------------------

data_VESTA_phase_1


_pd_phase_name                         'A-Pb-I                               '
_cell_length_a                         6.21138
_cell_length_b                         6.21209
_cell_length_c                         6.21699
_cell_angle_alpha                      90.62399
_cell_angle_beta                       89.43101
_cell_angle_gamma                      89.39435
_symmetry_space_group_name_H-M         'P 1'
_symmetry_Int_Tables_number            1

loop_
_symmetry_equiv_pos_as_xyz
   'x, y, z'

loop_
   _atom_site_label
   _atom_site_occupancy
   _atom_site_fract_x
   _atom_site_fract_y
   _atom_site_fract_z
   _atom_site_adp_type
   _atom_site_B_iso_or_equiv
   _atom_site_type_symbol
N1	1	0.500000	0.500000	0.500000	Biso	1	N
H1	1	1.390589	0.609225	0.437540	Biso	1	H
H2	1	1.462611	1.346050	0.447665	Biso	1	H
H3	1	0.492639	1.507232	-0.333524	Biso	1	H
H4	1	0.653924	0.537850	0.448056	Biso	1	H
Pb1	1	0.993053	1.004733	-0.009262	Biso	1	Pb
I1	1	0.986086	1.011718	0.490646	Biso	1	I
I2	1	1.004917	0.504562	-0.006464	Biso	1	I
I3	1	1.493236	0.992701	-0.007044	Biso	1	I

