#======================================================================

# CRYSTAL DATA

#----------------------------------------------------------------------

data_VESTA_phase_1


_pd_phase_name                         'MA-Pb-I                               '
_cell_length_a                         6.29012
_cell_length_b                         6.27389
_cell_length_c                         6.29704
_cell_angle_alpha                      90.00140
_cell_angle_beta                       90.36093
_cell_angle_gamma                      89.99929
_symmetry_space_group_name_H-M         'P 1'
_symmetry_Int_Tables_number            1

loop_
_symmetry_equiv_pos_as_xyz
   'x, y, z'

loop_
   _atom_site_label
   _atom_site_occupancy
   _atom_site_fract_x
   _atom_site_fract_y
   _atom_site_fract_z
   _atom_site_adp_type
   _atom_site_B_iso_or_equiv
   _atom_site_type_symbol
   C1         1.0     0.383099      0.500068      0.485729     Biso  1.000000 C
   N1         1.0     0.616902      0.499932      0.514271     Biso  1.000000 N
   H1         1.0     0.344826      0.499818      0.315129     Biso  1.000000 H
   H2         1.0     0.318112      0.643862      0.561321     Biso  1.000000 H
   H3         1.0     0.317908      0.356621      0.561777     Biso  1.000000 H
   H4         1.0     0.687907      0.634379      0.447527     Biso  1.000000 H
   H5         1.0     0.687711      0.365168      0.447890     Biso  1.000000 H
   H6         1.0     0.662332      0.500108      0.674747     Biso  1.000000 H
   Pb1        1.0     0.956490      0.000136      0.965041     Biso  1.000000 Pb
   I1         1.0     0.907121      0.999988      0.462002     Biso  1.000000 I
   I2         1.0     0.916179      0.500150      0.995935     Biso  1.000000 I
   I3         1.0     0.443217      0.000332      0.937141     Biso  1.000000 I
